*SPEF "ieee 1481-1999"
*DESIGN "simple_design"
*DATE "11:11:11 Fri 11 11, 1111"
*VENDOR "OpenRCX"
*PROGRAM "Parallel Extraction"
*VERSION "1.0"
*DESIGN_FLOW "NAME_SCOPE LOCAL" "PIN_CAP NONE"
*DIVIDER /
*DELIMITER :
*BUS_DELIMITER []
*T_UNIT 1 NS
*C_UNIT 1 PF
*R_UNIT 1 OHM
*L_UNIT 1 HENRY

*NAME_MAP
*1 a
*2 b
*3 clk
*4 out
*5 rst
*8 _0_
*9 _1_
*10 _2_
*11 net1
*12 net2
*13 net3
*14 net4
*15 FILLER_0_0_1005
*16 FILLER_0_0_1009
*17 FILLER_0_0_1021
*18 FILLER_0_0_1033
*19 FILLER_0_0_1037
*20 FILLER_0_0_1049
*21 FILLER_0_0_1061
*22 FILLER_0_0_1065
*23 FILLER_0_0_1077
*24 FILLER_0_0_1089
*25 FILLER_0_0_109
*26 FILLER_0_0_1093
*27 FILLER_0_0_1101
*28 FILLER_0_0_113
*29 FILLER_0_0_125
*30 FILLER_0_0_137
*31 FILLER_0_0_141
*32 FILLER_0_0_153
*33 FILLER_0_0_165
*34 FILLER_0_0_169
*35 FILLER_0_0_181
*36 FILLER_0_0_193
*37 FILLER_0_0_197
*38 FILLER_0_0_209
*39 FILLER_0_0_21
*40 FILLER_0_0_221
*41 FILLER_0_0_225
*42 FILLER_0_0_237
*43 FILLER_0_0_249
*44 FILLER_0_0_253
*45 FILLER_0_0_265
*46 FILLER_0_0_27
*47 FILLER_0_0_277
*48 FILLER_0_0_281
*49 FILLER_0_0_29
*50 FILLER_0_0_293
*51 FILLER_0_0_305
*52 FILLER_0_0_309
*53 FILLER_0_0_321
*54 FILLER_0_0_333
*55 FILLER_0_0_337
*56 FILLER_0_0_349
*57 FILLER_0_0_361
*58 FILLER_0_0_365
*59 FILLER_0_0_377
*60 FILLER_0_0_389
*61 FILLER_0_0_393
*62 FILLER_0_0_405
*63 FILLER_0_0_41
*64 FILLER_0_0_417
*65 FILLER_0_0_421
*66 FILLER_0_0_433
*67 FILLER_0_0_445
*68 FILLER_0_0_449
*69 FILLER_0_0_461
*70 FILLER_0_0_473
*71 FILLER_0_0_477
*72 FILLER_0_0_489
*73 FILLER_0_0_501
*74 FILLER_0_0_505
*75 FILLER_0_0_517
*76 FILLER_0_0_529
*77 FILLER_0_0_53
*78 FILLER_0_0_533
*79 FILLER_0_0_545
*80 FILLER_0_0_557
*81 FILLER_0_0_561
*82 FILLER_0_0_57
*83 FILLER_0_0_573
*84 FILLER_0_0_585
*85 FILLER_0_0_589
*86 FILLER_0_0_601
*87 FILLER_0_0_613
*88 FILLER_0_0_617
*89 FILLER_0_0_629
*90 FILLER_0_0_641
*91 FILLER_0_0_645
*92 FILLER_0_0_657
*93 FILLER_0_0_669
*94 FILLER_0_0_673
*95 FILLER_0_0_685
*96 FILLER_0_0_69
*97 FILLER_0_0_697
*98 FILLER_0_0_701
*99 FILLER_0_0_713
*100 FILLER_0_0_725
*101 FILLER_0_0_729
*102 FILLER_0_0_741
*103 FILLER_0_0_753
*104 FILLER_0_0_757
*105 FILLER_0_0_769
*106 FILLER_0_0_781
*107 FILLER_0_0_785
*108 FILLER_0_0_797
*109 FILLER_0_0_809
*110 FILLER_0_0_81
*111 FILLER_0_0_813
*112 FILLER_0_0_825
*113 FILLER_0_0_837
*114 FILLER_0_0_841
*115 FILLER_0_0_85
*116 FILLER_0_0_853
*117 FILLER_0_0_865
*118 FILLER_0_0_869
*119 FILLER_0_0_877
*120 FILLER_0_0_889
*121 FILLER_0_0_895
*122 FILLER_0_0_897
*123 FILLER_0_0_9
*124 FILLER_0_0_909
*125 FILLER_0_0_921
*126 FILLER_0_0_925
*127 FILLER_0_0_937
*128 FILLER_0_0_949
*129 FILLER_0_0_953
*130 FILLER_0_0_965
*131 FILLER_0_0_97
*132 FILLER_0_0_977
*133 FILLER_0_0_981
*134 FILLER_0_0_993
*135 FILLER_0_100_1005
*136 FILLER_0_100_1017
*137 FILLER_0_100_1029
*138 FILLER_0_100_1035
*139 FILLER_0_100_1037
*140 FILLER_0_100_1049
*141 FILLER_0_100_1061
*142 FILLER_0_100_1073
*143 FILLER_0_100_1085
*144 FILLER_0_100_109
*145 FILLER_0_100_1091
*146 FILLER_0_100_1093
*147 FILLER_0_100_1101
*148 FILLER_0_100_121
*149 FILLER_0_100_133
*150 FILLER_0_100_139
*151 FILLER_0_100_141
*152 FILLER_0_100_15
*153 FILLER_0_100_153
*154 FILLER_0_100_165
*155 FILLER_0_100_177
*156 FILLER_0_100_189
*157 FILLER_0_100_195
*158 FILLER_0_100_197
*159 FILLER_0_100_209
*160 FILLER_0_100_221
*161 FILLER_0_100_233
*162 FILLER_0_100_245
*163 FILLER_0_100_251
*164 FILLER_0_100_253
*165 FILLER_0_100_265
*166 FILLER_0_100_27
*167 FILLER_0_100_277
*168 FILLER_0_100_289
*169 FILLER_0_100_29
*170 FILLER_0_100_3
*171 FILLER_0_100_301
*172 FILLER_0_100_307
*173 FILLER_0_100_309
*174 FILLER_0_100_321
*175 FILLER_0_100_333
*176 FILLER_0_100_345
*177 FILLER_0_100_357
*178 FILLER_0_100_363
*179 FILLER_0_100_365
*180 FILLER_0_100_377
*181 FILLER_0_100_389
*182 FILLER_0_100_401
*183 FILLER_0_100_41
*184 FILLER_0_100_413
*185 FILLER_0_100_419
*186 FILLER_0_100_421
*187 FILLER_0_100_433
*188 FILLER_0_100_445
*189 FILLER_0_100_457
*190 FILLER_0_100_469
*191 FILLER_0_100_475
*192 FILLER_0_100_477
*193 FILLER_0_100_489
*194 FILLER_0_100_501
*195 FILLER_0_100_513
*196 FILLER_0_100_525
*197 FILLER_0_100_53
*198 FILLER_0_100_531
*199 FILLER_0_100_533
*200 FILLER_0_100_545
*201 FILLER_0_100_557
*202 FILLER_0_100_569
*203 FILLER_0_100_581
*204 FILLER_0_100_587
*205 FILLER_0_100_589
*206 FILLER_0_100_601
*207 FILLER_0_100_613
*208 FILLER_0_100_625
*209 FILLER_0_100_637
*210 FILLER_0_100_643
*211 FILLER_0_100_645
*212 FILLER_0_100_65
*213 FILLER_0_100_657
*214 FILLER_0_100_669
*215 FILLER_0_100_681
*216 FILLER_0_100_693
*217 FILLER_0_100_699
*218 FILLER_0_100_701
*219 FILLER_0_100_713
*220 FILLER_0_100_725
*221 FILLER_0_100_737
*222 FILLER_0_100_749
*223 FILLER_0_100_755
*224 FILLER_0_100_757
*225 FILLER_0_100_769
*226 FILLER_0_100_77
*227 FILLER_0_100_781
*228 FILLER_0_100_793
*229 FILLER_0_100_805
*230 FILLER_0_100_811
*231 FILLER_0_100_813
*232 FILLER_0_100_825
*233 FILLER_0_100_83
*234 FILLER_0_100_837
*235 FILLER_0_100_849
*236 FILLER_0_100_85
*237 FILLER_0_100_861
*238 FILLER_0_100_867
*239 FILLER_0_100_869
*240 FILLER_0_100_881
*241 FILLER_0_100_893
*242 FILLER_0_100_905
*243 FILLER_0_100_917
*244 FILLER_0_100_923
*245 FILLER_0_100_925
*246 FILLER_0_100_937
*247 FILLER_0_100_949
*248 FILLER_0_100_961
*249 FILLER_0_100_97
*250 FILLER_0_100_973
*251 FILLER_0_100_979
*252 FILLER_0_100_981
*253 FILLER_0_100_993
*254 FILLER_0_101_1001
*255 FILLER_0_101_1007
*256 FILLER_0_101_1009
*257 FILLER_0_101_1021
*258 FILLER_0_101_1033
*259 FILLER_0_101_1045
*260 FILLER_0_101_105
*261 FILLER_0_101_1057
*262 FILLER_0_101_1063
*263 FILLER_0_101_1065
*264 FILLER_0_101_1077
*265 FILLER_0_101_1089
*266 FILLER_0_101_1101
*267 FILLER_0_101_111
*268 FILLER_0_101_113
*269 FILLER_0_101_125
*270 FILLER_0_101_137
*271 FILLER_0_101_149
*272 FILLER_0_101_15
*273 FILLER_0_101_161
*274 FILLER_0_101_167
*275 FILLER_0_101_169
*276 FILLER_0_101_181
*277 FILLER_0_101_193
*278 FILLER_0_101_205
*279 FILLER_0_101_217
*280 FILLER_0_101_223
*281 FILLER_0_101_225
*282 FILLER_0_101_237
*283 FILLER_0_101_249
*284 FILLER_0_101_261
*285 FILLER_0_101_27
*286 FILLER_0_101_273
*287 FILLER_0_101_279
*288 FILLER_0_101_281
*289 FILLER_0_101_293
*290 FILLER_0_101_3
*291 FILLER_0_101_305
*292 FILLER_0_101_317
*293 FILLER_0_101_329
*294 FILLER_0_101_335
*295 FILLER_0_101_337
*296 FILLER_0_101_349
*297 FILLER_0_101_361
*298 FILLER_0_101_373
*299 FILLER_0_101_385
*300 FILLER_0_101_39
*301 FILLER_0_101_391
*302 FILLER_0_101_393
*303 FILLER_0_101_405
*304 FILLER_0_101_417
*305 FILLER_0_101_429
*306 FILLER_0_101_441
*307 FILLER_0_101_447
*308 FILLER_0_101_449
*309 FILLER_0_101_461
*310 FILLER_0_101_473
*311 FILLER_0_101_485
*312 FILLER_0_101_497
*313 FILLER_0_101_503
*314 FILLER_0_101_505
*315 FILLER_0_101_51
*316 FILLER_0_101_517
*317 FILLER_0_101_529
*318 FILLER_0_101_541
*319 FILLER_0_101_55
*320 FILLER_0_101_553
*321 FILLER_0_101_559
*322 FILLER_0_101_561
*323 FILLER_0_101_57
*324 FILLER_0_101_573
*325 FILLER_0_101_585
*326 FILLER_0_101_597
*327 FILLER_0_101_609
*328 FILLER_0_101_615
*329 FILLER_0_101_617
*330 FILLER_0_101_629
*331 FILLER_0_101_641
*332 FILLER_0_101_653
*333 FILLER_0_101_665
*334 FILLER_0_101_671
*335 FILLER_0_101_673
*336 FILLER_0_101_685
*337 FILLER_0_101_69
*338 FILLER_0_101_697
*339 FILLER_0_101_709
*340 FILLER_0_101_721
*341 FILLER_0_101_727
*342 FILLER_0_101_729
*343 FILLER_0_101_741
*344 FILLER_0_101_753
*345 FILLER_0_101_765
*346 FILLER_0_101_777
*347 FILLER_0_101_783
*348 FILLER_0_101_785
*349 FILLER_0_101_797
*350 FILLER_0_101_809
*351 FILLER_0_101_81
*352 FILLER_0_101_821
*353 FILLER_0_101_833
*354 FILLER_0_101_839
*355 FILLER_0_101_841
*356 FILLER_0_101_853
*357 FILLER_0_101_865
*358 FILLER_0_101_877
*359 FILLER_0_101_889
*360 FILLER_0_101_895
*361 FILLER_0_101_897
*362 FILLER_0_101_909
*363 FILLER_0_101_921
*364 FILLER_0_101_93
*365 FILLER_0_101_933
*366 FILLER_0_101_945
*367 FILLER_0_101_951
*368 FILLER_0_101_953
*369 FILLER_0_101_965
*370 FILLER_0_101_977
*371 FILLER_0_101_989
*372 FILLER_0_102_1005
*373 FILLER_0_102_1017
*374 FILLER_0_102_1029
*375 FILLER_0_102_1035
*376 FILLER_0_102_1037
*377 FILLER_0_102_1049
*378 FILLER_0_102_1061
*379 FILLER_0_102_1073
*380 FILLER_0_102_1085
*381 FILLER_0_102_109
*382 FILLER_0_102_1091
*383 FILLER_0_102_1093
*384 FILLER_0_102_1101
*385 FILLER_0_102_121
*386 FILLER_0_102_133
*387 FILLER_0_102_139
*388 FILLER_0_102_141
*389 FILLER_0_102_15
*390 FILLER_0_102_153
*391 FILLER_0_102_165
*392 FILLER_0_102_177
*393 FILLER_0_102_189
*394 FILLER_0_102_195
*395 FILLER_0_102_197
*396 FILLER_0_102_209
*397 FILLER_0_102_221
*398 FILLER_0_102_233
*399 FILLER_0_102_245
*400 FILLER_0_102_251
*401 FILLER_0_102_253
*402 FILLER_0_102_265
*403 FILLER_0_102_27
*404 FILLER_0_102_277
*405 FILLER_0_102_289
*406 FILLER_0_102_29
*407 FILLER_0_102_3
*408 FILLER_0_102_301
*409 FILLER_0_102_307
*410 FILLER_0_102_309
*411 FILLER_0_102_321
*412 FILLER_0_102_333
*413 FILLER_0_102_345
*414 FILLER_0_102_357
*415 FILLER_0_102_363
*416 FILLER_0_102_365
*417 FILLER_0_102_377
*418 FILLER_0_102_389
*419 FILLER_0_102_401
*420 FILLER_0_102_41
*421 FILLER_0_102_413
*422 FILLER_0_102_419
*423 FILLER_0_102_421
*424 FILLER_0_102_433
*425 FILLER_0_102_445
*426 FILLER_0_102_457
*427 FILLER_0_102_469
*428 FILLER_0_102_475
*429 FILLER_0_102_477
*430 FILLER_0_102_489
*431 FILLER_0_102_501
*432 FILLER_0_102_513
*433 FILLER_0_102_525
*434 FILLER_0_102_53
*435 FILLER_0_102_531
*436 FILLER_0_102_533
*437 FILLER_0_102_545
*438 FILLER_0_102_557
*439 FILLER_0_102_569
*440 FILLER_0_102_581
*441 FILLER_0_102_587
*442 FILLER_0_102_589
*443 FILLER_0_102_601
*444 FILLER_0_102_613
*445 FILLER_0_102_625
*446 FILLER_0_102_637
*447 FILLER_0_102_643
*448 FILLER_0_102_645
*449 FILLER_0_102_65
*450 FILLER_0_102_657
*451 FILLER_0_102_669
*452 FILLER_0_102_681
*453 FILLER_0_102_693
*454 FILLER_0_102_699
*455 FILLER_0_102_701
*456 FILLER_0_102_713
*457 FILLER_0_102_725
*458 FILLER_0_102_737
*459 FILLER_0_102_749
*460 FILLER_0_102_755
*461 FILLER_0_102_757
*462 FILLER_0_102_769
*463 FILLER_0_102_77
*464 FILLER_0_102_781
*465 FILLER_0_102_793
*466 FILLER_0_102_805
*467 FILLER_0_102_811
*468 FILLER_0_102_813
*469 FILLER_0_102_825
*470 FILLER_0_102_83
*471 FILLER_0_102_837
*472 FILLER_0_102_849
*473 FILLER_0_102_85
*474 FILLER_0_102_861
*475 FILLER_0_102_867
*476 FILLER_0_102_869
*477 FILLER_0_102_881
*478 FILLER_0_102_893
*479 FILLER_0_102_905
*480 FILLER_0_102_917
*481 FILLER_0_102_923
*482 FILLER_0_102_925
*483 FILLER_0_102_937
*484 FILLER_0_102_949
*485 FILLER_0_102_961
*486 FILLER_0_102_97
*487 FILLER_0_102_973
*488 FILLER_0_102_979
*489 FILLER_0_102_981
*490 FILLER_0_102_993
*491 FILLER_0_103_1001
*492 FILLER_0_103_1007
*493 FILLER_0_103_1009
*494 FILLER_0_103_1021
*495 FILLER_0_103_1033
*496 FILLER_0_103_1045
*497 FILLER_0_103_105
*498 FILLER_0_103_1057
*499 FILLER_0_103_1063
*500 FILLER_0_103_1065
*501 FILLER_0_103_1077
*502 FILLER_0_103_1089
*503 FILLER_0_103_1101
*504 FILLER_0_103_111
*505 FILLER_0_103_113
*506 FILLER_0_103_125
*507 FILLER_0_103_137
*508 FILLER_0_103_149
*509 FILLER_0_103_15
*510 FILLER_0_103_161
*511 FILLER_0_103_167
*512 FILLER_0_103_169
*513 FILLER_0_103_181
*514 FILLER_0_103_193
*515 FILLER_0_103_205
*516 FILLER_0_103_217
*517 FILLER_0_103_223
*518 FILLER_0_103_225
*519 FILLER_0_103_237
*520 FILLER_0_103_249
*521 FILLER_0_103_261
*522 FILLER_0_103_27
*523 FILLER_0_103_273
*524 FILLER_0_103_279
*525 FILLER_0_103_281
*526 FILLER_0_103_293
*527 FILLER_0_103_3
*528 FILLER_0_103_305
*529 FILLER_0_103_317
*530 FILLER_0_103_329
*531 FILLER_0_103_335
*532 FILLER_0_103_337
*533 FILLER_0_103_349
*534 FILLER_0_103_361
*535 FILLER_0_103_373
*536 FILLER_0_103_385
*537 FILLER_0_103_39
*538 FILLER_0_103_391
*539 FILLER_0_103_393
*540 FILLER_0_103_405
*541 FILLER_0_103_417
*542 FILLER_0_103_429
*543 FILLER_0_103_441
*544 FILLER_0_103_447
*545 FILLER_0_103_449
*546 FILLER_0_103_461
*547 FILLER_0_103_473
*548 FILLER_0_103_485
*549 FILLER_0_103_497
*550 FILLER_0_103_503
*551 FILLER_0_103_505
*552 FILLER_0_103_51
*553 FILLER_0_103_517
*554 FILLER_0_103_529
*555 FILLER_0_103_541
*556 FILLER_0_103_55
*557 FILLER_0_103_553
*558 FILLER_0_103_559
*559 FILLER_0_103_561
*560 FILLER_0_103_57
*561 FILLER_0_103_573
*562 FILLER_0_103_585
*563 FILLER_0_103_597
*564 FILLER_0_103_609
*565 FILLER_0_103_615
*566 FILLER_0_103_617
*567 FILLER_0_103_629
*568 FILLER_0_103_641
*569 FILLER_0_103_653
*570 FILLER_0_103_665
*571 FILLER_0_103_671
*572 FILLER_0_103_673
*573 FILLER_0_103_685
*574 FILLER_0_103_69
*575 FILLER_0_103_697
*576 FILLER_0_103_709
*577 FILLER_0_103_721
*578 FILLER_0_103_727
*579 FILLER_0_103_729
*580 FILLER_0_103_741
*581 FILLER_0_103_753
*582 FILLER_0_103_765
*583 FILLER_0_103_777
*584 FILLER_0_103_783
*585 FILLER_0_103_785
*586 FILLER_0_103_797
*587 FILLER_0_103_809
*588 FILLER_0_103_81
*589 FILLER_0_103_821
*590 FILLER_0_103_833
*591 FILLER_0_103_839
*592 FILLER_0_103_841
*593 FILLER_0_103_853
*594 FILLER_0_103_865
*595 FILLER_0_103_877
*596 FILLER_0_103_889
*597 FILLER_0_103_895
*598 FILLER_0_103_897
*599 FILLER_0_103_909
*600 FILLER_0_103_921
*601 FILLER_0_103_93
*602 FILLER_0_103_933
*603 FILLER_0_103_945
*604 FILLER_0_103_951
*605 FILLER_0_103_953
*606 FILLER_0_103_965
*607 FILLER_0_103_977
*608 FILLER_0_103_989
*609 FILLER_0_104_1005
*610 FILLER_0_104_1017
*611 FILLER_0_104_1029
*612 FILLER_0_104_1035
*613 FILLER_0_104_1037
*614 FILLER_0_104_1049
*615 FILLER_0_104_1061
*616 FILLER_0_104_1073
*617 FILLER_0_104_1085
*618 FILLER_0_104_109
*619 FILLER_0_104_1091
*620 FILLER_0_104_1093
*621 FILLER_0_104_1101
*622 FILLER_0_104_121
*623 FILLER_0_104_133
*624 FILLER_0_104_139
*625 FILLER_0_104_141
*626 FILLER_0_104_15
*627 FILLER_0_104_153
*628 FILLER_0_104_165
*629 FILLER_0_104_177
*630 FILLER_0_104_189
*631 FILLER_0_104_195
*632 FILLER_0_104_197
*633 FILLER_0_104_209
*634 FILLER_0_104_221
*635 FILLER_0_104_233
*636 FILLER_0_104_245
*637 FILLER_0_104_251
*638 FILLER_0_104_253
*639 FILLER_0_104_265
*640 FILLER_0_104_27
*641 FILLER_0_104_277
*642 FILLER_0_104_289
*643 FILLER_0_104_29
*644 FILLER_0_104_3
*645 FILLER_0_104_301
*646 FILLER_0_104_307
*647 FILLER_0_104_309
*648 FILLER_0_104_321
*649 FILLER_0_104_333
*650 FILLER_0_104_345
*651 FILLER_0_104_357
*652 FILLER_0_104_363
*653 FILLER_0_104_365
*654 FILLER_0_104_377
*655 FILLER_0_104_389
*656 FILLER_0_104_401
*657 FILLER_0_104_41
*658 FILLER_0_104_413
*659 FILLER_0_104_419
*660 FILLER_0_104_421
*661 FILLER_0_104_433
*662 FILLER_0_104_445
*663 FILLER_0_104_457
*664 FILLER_0_104_469
*665 FILLER_0_104_475
*666 FILLER_0_104_477
*667 FILLER_0_104_489
*668 FILLER_0_104_501
*669 FILLER_0_104_513
*670 FILLER_0_104_525
*671 FILLER_0_104_53
*672 FILLER_0_104_531
*673 FILLER_0_104_533
*674 FILLER_0_104_545
*675 FILLER_0_104_557
*676 FILLER_0_104_569
*677 FILLER_0_104_581
*678 FILLER_0_104_587
*679 FILLER_0_104_589
*680 FILLER_0_104_601
*681 FILLER_0_104_613
*682 FILLER_0_104_625
*683 FILLER_0_104_637
*684 FILLER_0_104_643
*685 FILLER_0_104_645
*686 FILLER_0_104_65
*687 FILLER_0_104_657
*688 FILLER_0_104_669
*689 FILLER_0_104_681
*690 FILLER_0_104_693
*691 FILLER_0_104_699
*692 FILLER_0_104_701
*693 FILLER_0_104_713
*694 FILLER_0_104_725
*695 FILLER_0_104_737
*696 FILLER_0_104_749
*697 FILLER_0_104_755
*698 FILLER_0_104_757
*699 FILLER_0_104_769
*700 FILLER_0_104_77
*701 FILLER_0_104_781
*702 FILLER_0_104_793
*703 FILLER_0_104_805
*704 FILLER_0_104_811
*705 FILLER_0_104_813
*706 FILLER_0_104_825
*707 FILLER_0_104_83
*708 FILLER_0_104_837
*709 FILLER_0_104_849
*710 FILLER_0_104_85
*711 FILLER_0_104_861
*712 FILLER_0_104_867
*713 FILLER_0_104_869
*714 FILLER_0_104_881
*715 FILLER_0_104_893
*716 FILLER_0_104_905
*717 FILLER_0_104_917
*718 FILLER_0_104_923
*719 FILLER_0_104_925
*720 FILLER_0_104_937
*721 FILLER_0_104_949
*722 FILLER_0_104_961
*723 FILLER_0_104_97
*724 FILLER_0_104_973
*725 FILLER_0_104_979
*726 FILLER_0_104_981
*727 FILLER_0_104_993
*728 FILLER_0_105_1001
*729 FILLER_0_105_1007
*730 FILLER_0_105_1009
*731 FILLER_0_105_1021
*732 FILLER_0_105_1033
*733 FILLER_0_105_1045
*734 FILLER_0_105_105
*735 FILLER_0_105_1057
*736 FILLER_0_105_1063
*737 FILLER_0_105_1065
*738 FILLER_0_105_1077
*739 FILLER_0_105_1089
*740 FILLER_0_105_1101
*741 FILLER_0_105_111
*742 FILLER_0_105_113
*743 FILLER_0_105_125
*744 FILLER_0_105_137
*745 FILLER_0_105_149
*746 FILLER_0_105_15
*747 FILLER_0_105_161
*748 FILLER_0_105_167
*749 FILLER_0_105_169
*750 FILLER_0_105_181
*751 FILLER_0_105_193
*752 FILLER_0_105_205
*753 FILLER_0_105_217
*754 FILLER_0_105_223
*755 FILLER_0_105_225
*756 FILLER_0_105_237
*757 FILLER_0_105_249
*758 FILLER_0_105_261
*759 FILLER_0_105_27
*760 FILLER_0_105_273
*761 FILLER_0_105_279
*762 FILLER_0_105_281
*763 FILLER_0_105_293
*764 FILLER_0_105_3
*765 FILLER_0_105_305
*766 FILLER_0_105_317
*767 FILLER_0_105_329
*768 FILLER_0_105_335
*769 FILLER_0_105_337
*770 FILLER_0_105_349
*771 FILLER_0_105_361
*772 FILLER_0_105_373
*773 FILLER_0_105_385
*774 FILLER_0_105_39
*775 FILLER_0_105_391
*776 FILLER_0_105_393
*777 FILLER_0_105_405
*778 FILLER_0_105_417
*779 FILLER_0_105_429
*780 FILLER_0_105_441
*781 FILLER_0_105_447
*782 FILLER_0_105_449
*783 FILLER_0_105_461
*784 FILLER_0_105_473
*785 FILLER_0_105_485
*786 FILLER_0_105_497
*787 FILLER_0_105_503
*788 FILLER_0_105_505
*789 FILLER_0_105_51
*790 FILLER_0_105_517
*791 FILLER_0_105_529
*792 FILLER_0_105_541
*793 FILLER_0_105_55
*794 FILLER_0_105_553
*795 FILLER_0_105_559
*796 FILLER_0_105_561
*797 FILLER_0_105_57
*798 FILLER_0_105_573
*799 FILLER_0_105_585
*800 FILLER_0_105_597
*801 FILLER_0_105_609
*802 FILLER_0_105_615
*803 FILLER_0_105_617
*804 FILLER_0_105_629
*805 FILLER_0_105_641
*806 FILLER_0_105_653
*807 FILLER_0_105_665
*808 FILLER_0_105_671
*809 FILLER_0_105_673
*810 FILLER_0_105_685
*811 FILLER_0_105_69
*812 FILLER_0_105_697
*813 FILLER_0_105_709
*814 FILLER_0_105_721
*815 FILLER_0_105_727
*816 FILLER_0_105_729
*817 FILLER_0_105_741
*818 FILLER_0_105_753
*819 FILLER_0_105_765
*820 FILLER_0_105_777
*821 FILLER_0_105_783
*822 FILLER_0_105_785
*823 FILLER_0_105_797
*824 FILLER_0_105_809
*825 FILLER_0_105_81
*826 FILLER_0_105_821
*827 FILLER_0_105_833
*828 FILLER_0_105_839
*829 FILLER_0_105_841
*830 FILLER_0_105_853
*831 FILLER_0_105_865
*832 FILLER_0_105_877
*833 FILLER_0_105_889
*834 FILLER_0_105_895
*835 FILLER_0_105_897
*836 FILLER_0_105_909
*837 FILLER_0_105_921
*838 FILLER_0_105_93
*839 FILLER_0_105_933
*840 FILLER_0_105_945
*841 FILLER_0_105_951
*842 FILLER_0_105_953
*843 FILLER_0_105_965
*844 FILLER_0_105_977
*845 FILLER_0_105_989
*846 FILLER_0_106_1005
*847 FILLER_0_106_1017
*848 FILLER_0_106_1029
*849 FILLER_0_106_1035
*850 FILLER_0_106_1037
*851 FILLER_0_106_1049
*852 FILLER_0_106_1061
*853 FILLER_0_106_1073
*854 FILLER_0_106_1085
*855 FILLER_0_106_109
*856 FILLER_0_106_1091
*857 FILLER_0_106_1093
*858 FILLER_0_106_1101
*859 FILLER_0_106_121
*860 FILLER_0_106_133
*861 FILLER_0_106_139
*862 FILLER_0_106_141
*863 FILLER_0_106_15
*864 FILLER_0_106_153
*865 FILLER_0_106_165
*866 FILLER_0_106_177
*867 FILLER_0_106_189
*868 FILLER_0_106_195
*869 FILLER_0_106_197
*870 FILLER_0_106_209
*871 FILLER_0_106_221
*872 FILLER_0_106_233
*873 FILLER_0_106_245
*874 FILLER_0_106_251
*875 FILLER_0_106_253
*876 FILLER_0_106_265
*877 FILLER_0_106_27
*878 FILLER_0_106_277
*879 FILLER_0_106_289
*880 FILLER_0_106_29
*881 FILLER_0_106_3
*882 FILLER_0_106_301
*883 FILLER_0_106_307
*884 FILLER_0_106_309
*885 FILLER_0_106_321
*886 FILLER_0_106_333
*887 FILLER_0_106_345
*888 FILLER_0_106_357
*889 FILLER_0_106_363
*890 FILLER_0_106_365
*891 FILLER_0_106_377
*892 FILLER_0_106_389
*893 FILLER_0_106_401
*894 FILLER_0_106_41
*895 FILLER_0_106_413
*896 FILLER_0_106_419
*897 FILLER_0_106_421
*898 FILLER_0_106_433
*899 FILLER_0_106_445
*900 FILLER_0_106_457
*901 FILLER_0_106_469
*902 FILLER_0_106_475
*903 FILLER_0_106_477
*904 FILLER_0_106_489
*905 FILLER_0_106_501
*906 FILLER_0_106_513
*907 FILLER_0_106_525
*908 FILLER_0_106_53
*909 FILLER_0_106_531
*910 FILLER_0_106_533
*911 FILLER_0_106_545
*912 FILLER_0_106_557
*913 FILLER_0_106_569
*914 FILLER_0_106_581
*915 FILLER_0_106_587
*916 FILLER_0_106_589
*917 FILLER_0_106_601
*918 FILLER_0_106_613
*919 FILLER_0_106_625
*920 FILLER_0_106_637
*921 FILLER_0_106_643
*922 FILLER_0_106_645
*923 FILLER_0_106_65
*924 FILLER_0_106_657
*925 FILLER_0_106_669
*926 FILLER_0_106_681
*927 FILLER_0_106_693
*928 FILLER_0_106_699
*929 FILLER_0_106_701
*930 FILLER_0_106_713
*931 FILLER_0_106_725
*932 FILLER_0_106_737
*933 FILLER_0_106_749
*934 FILLER_0_106_755
*935 FILLER_0_106_757
*936 FILLER_0_106_769
*937 FILLER_0_106_77
*938 FILLER_0_106_781
*939 FILLER_0_106_793
*940 FILLER_0_106_805
*941 FILLER_0_106_811
*942 FILLER_0_106_813
*943 FILLER_0_106_825
*944 FILLER_0_106_83
*945 FILLER_0_106_837
*946 FILLER_0_106_849
*947 FILLER_0_106_85
*948 FILLER_0_106_861
*949 FILLER_0_106_867
*950 FILLER_0_106_869
*951 FILLER_0_106_881
*952 FILLER_0_106_893
*953 FILLER_0_106_905
*954 FILLER_0_106_917
*955 FILLER_0_106_923
*956 FILLER_0_106_925
*957 FILLER_0_106_937
*958 FILLER_0_106_949
*959 FILLER_0_106_961
*960 FILLER_0_106_97
*961 FILLER_0_106_973
*962 FILLER_0_106_979
*963 FILLER_0_106_981
*964 FILLER_0_106_993
*965 FILLER_0_107_1001
*966 FILLER_0_107_1007
*967 FILLER_0_107_1009
*968 FILLER_0_107_1021
*969 FILLER_0_107_1033
*970 FILLER_0_107_1045
*971 FILLER_0_107_105
*972 FILLER_0_107_1057
*973 FILLER_0_107_1063
*974 FILLER_0_107_1065
*975 FILLER_0_107_1077
*976 FILLER_0_107_1089
*977 FILLER_0_107_1101
*978 FILLER_0_107_111
*979 FILLER_0_107_113
*980 FILLER_0_107_125
*981 FILLER_0_107_137
*982 FILLER_0_107_149
*983 FILLER_0_107_15
*984 FILLER_0_107_161
*985 FILLER_0_107_167
*986 FILLER_0_107_169
*987 FILLER_0_107_181
*988 FILLER_0_107_193
*989 FILLER_0_107_205
*990 FILLER_0_107_217
*991 FILLER_0_107_223
*992 FILLER_0_107_225
*993 FILLER_0_107_237
*994 FILLER_0_107_249
*995 FILLER_0_107_261
*996 FILLER_0_107_27
*997 FILLER_0_107_273
*998 FILLER_0_107_279
*999 FILLER_0_107_281
*1000 FILLER_0_107_293
*1001 FILLER_0_107_3
*1002 FILLER_0_107_305
*1003 FILLER_0_107_317
*1004 FILLER_0_107_329
*1005 FILLER_0_107_335
*1006 FILLER_0_107_337
*1007 FILLER_0_107_349
*1008 FILLER_0_107_361
*1009 FILLER_0_107_373
*1010 FILLER_0_107_385
*1011 FILLER_0_107_39
*1012 FILLER_0_107_391
*1013 FILLER_0_107_393
*1014 FILLER_0_107_405
*1015 FILLER_0_107_417
*1016 FILLER_0_107_429
*1017 FILLER_0_107_441
*1018 FILLER_0_107_447
*1019 FILLER_0_107_449
*1020 FILLER_0_107_461
*1021 FILLER_0_107_473
*1022 FILLER_0_107_485
*1023 FILLER_0_107_497
*1024 FILLER_0_107_503
*1025 FILLER_0_107_505
*1026 FILLER_0_107_51
*1027 FILLER_0_107_517
*1028 FILLER_0_107_529
*1029 FILLER_0_107_541
*1030 FILLER_0_107_55
*1031 FILLER_0_107_553
*1032 FILLER_0_107_559
*1033 FILLER_0_107_561
*1034 FILLER_0_107_57
*1035 FILLER_0_107_573
*1036 FILLER_0_107_585
*1037 FILLER_0_107_597
*1038 FILLER_0_107_609
*1039 FILLER_0_107_615
*1040 FILLER_0_107_617
*1041 FILLER_0_107_629
*1042 FILLER_0_107_641
*1043 FILLER_0_107_653
*1044 FILLER_0_107_665
*1045 FILLER_0_107_671
*1046 FILLER_0_107_676
*1047 FILLER_0_107_688
*1048 FILLER_0_107_69
*1049 FILLER_0_107_700
*1050 FILLER_0_107_712
*1051 FILLER_0_107_724
*1052 FILLER_0_107_729
*1053 FILLER_0_107_741
*1054 FILLER_0_107_753
*1055 FILLER_0_107_765
*1056 FILLER_0_107_777
*1057 FILLER_0_107_783
*1058 FILLER_0_107_785
*1059 FILLER_0_107_797
*1060 FILLER_0_107_809
*1061 FILLER_0_107_81
*1062 FILLER_0_107_821
*1063 FILLER_0_107_833
*1064 FILLER_0_107_839
*1065 FILLER_0_107_841
*1066 FILLER_0_107_853
*1067 FILLER_0_107_865
*1068 FILLER_0_107_877
*1069 FILLER_0_107_889
*1070 FILLER_0_107_895
*1071 FILLER_0_107_897
*1072 FILLER_0_107_909
*1073 FILLER_0_107_921
*1074 FILLER_0_107_93
*1075 FILLER_0_107_933
*1076 FILLER_0_107_945
*1077 FILLER_0_107_951
*1078 FILLER_0_107_953
*1079 FILLER_0_107_965
*1080 FILLER_0_107_977
*1081 FILLER_0_107_989
*1082 FILLER_0_108_1005
*1083 FILLER_0_108_1017
*1084 FILLER_0_108_1029
*1085 FILLER_0_108_1035
*1086 FILLER_0_108_1037
*1087 FILLER_0_108_1049
*1088 FILLER_0_108_1061
*1089 FILLER_0_108_1073
*1090 FILLER_0_108_1085
*1091 FILLER_0_108_109
*1092 FILLER_0_108_1091
*1093 FILLER_0_108_1093
*1094 FILLER_0_108_1101
*1095 FILLER_0_108_121
*1096 FILLER_0_108_133
*1097 FILLER_0_108_139
*1098 FILLER_0_108_141
*1099 FILLER_0_108_15
*1100 FILLER_0_108_153
*1101 FILLER_0_108_165
*1102 FILLER_0_108_177
*1103 FILLER_0_108_189
*1104 FILLER_0_108_195
*1105 FILLER_0_108_197
*1106 FILLER_0_108_209
*1107 FILLER_0_108_221
*1108 FILLER_0_108_233
*1109 FILLER_0_108_245
*1110 FILLER_0_108_251
*1111 FILLER_0_108_253
*1112 FILLER_0_108_265
*1113 FILLER_0_108_27
*1114 FILLER_0_108_277
*1115 FILLER_0_108_289
*1116 FILLER_0_108_29
*1117 FILLER_0_108_3
*1118 FILLER_0_108_301
*1119 FILLER_0_108_307
*1120 FILLER_0_108_309
*1121 FILLER_0_108_321
*1122 FILLER_0_108_333
*1123 FILLER_0_108_345
*1124 FILLER_0_108_357
*1125 FILLER_0_108_363
*1126 FILLER_0_108_365
*1127 FILLER_0_108_377
*1128 FILLER_0_108_385
*1129 FILLER_0_108_393
*1130 FILLER_0_108_405
*1131 FILLER_0_108_41
*1132 FILLER_0_108_417
*1133 FILLER_0_108_421
*1134 FILLER_0_108_433
*1135 FILLER_0_108_445
*1136 FILLER_0_108_457
*1137 FILLER_0_108_469
*1138 FILLER_0_108_475
*1139 FILLER_0_108_477
*1140 FILLER_0_108_489
*1141 FILLER_0_108_501
*1142 FILLER_0_108_513
*1143 FILLER_0_108_525
*1144 FILLER_0_108_53
*1145 FILLER_0_108_531
*1146 FILLER_0_108_533
*1147 FILLER_0_108_545
*1148 FILLER_0_108_557
*1149 FILLER_0_108_569
*1150 FILLER_0_108_581
*1151 FILLER_0_108_587
*1152 FILLER_0_108_589
*1153 FILLER_0_108_601
*1154 FILLER_0_108_613
*1155 FILLER_0_108_625
*1156 FILLER_0_108_637
*1157 FILLER_0_108_643
*1158 FILLER_0_108_645
*1159 FILLER_0_108_65
*1160 FILLER_0_108_678
*1161 FILLER_0_108_690
*1162 FILLER_0_108_698
*1163 FILLER_0_108_701
*1164 FILLER_0_108_713
*1165 FILLER_0_108_725
*1166 FILLER_0_108_737
*1167 FILLER_0_108_749
*1168 FILLER_0_108_755
*1169 FILLER_0_108_757
*1170 FILLER_0_108_769
*1171 FILLER_0_108_77
*1172 FILLER_0_108_781
*1173 FILLER_0_108_793
*1174 FILLER_0_108_805
*1175 FILLER_0_108_811
*1176 FILLER_0_108_813
*1177 FILLER_0_108_825
*1178 FILLER_0_108_83
*1179 FILLER_0_108_837
*1180 FILLER_0_108_849
*1181 FILLER_0_108_85
*1182 FILLER_0_108_861
*1183 FILLER_0_108_867
*1184 FILLER_0_108_869
*1185 FILLER_0_108_881
*1186 FILLER_0_108_893
*1187 FILLER_0_108_905
*1188 FILLER_0_108_917
*1189 FILLER_0_108_923
*1190 FILLER_0_108_925
*1191 FILLER_0_108_937
*1192 FILLER_0_108_949
*1193 FILLER_0_108_961
*1194 FILLER_0_108_97
*1195 FILLER_0_108_973
*1196 FILLER_0_108_979
*1197 FILLER_0_108_981
*1198 FILLER_0_108_993
*1199 FILLER_0_109_1001
*1200 FILLER_0_109_1007
*1201 FILLER_0_109_1009
*1202 FILLER_0_109_1021
*1203 FILLER_0_109_1033
*1204 FILLER_0_109_1045
*1205 FILLER_0_109_105
*1206 FILLER_0_109_1057
*1207 FILLER_0_109_1063
*1208 FILLER_0_109_1065
*1209 FILLER_0_109_1077
*1210 FILLER_0_109_1089
*1211 FILLER_0_109_1101
*1212 FILLER_0_109_111
*1213 FILLER_0_109_113
*1214 FILLER_0_109_125
*1215 FILLER_0_109_137
*1216 FILLER_0_109_149
*1217 FILLER_0_109_15
*1218 FILLER_0_109_161
*1219 FILLER_0_109_167
*1220 FILLER_0_109_169
*1221 FILLER_0_109_181
*1222 FILLER_0_109_193
*1223 FILLER_0_109_205
*1224 FILLER_0_109_217
*1225 FILLER_0_109_223
*1226 FILLER_0_109_225
*1227 FILLER_0_109_237
*1228 FILLER_0_109_249
*1229 FILLER_0_109_261
*1230 FILLER_0_109_27
*1231 FILLER_0_109_273
*1232 FILLER_0_109_279
*1233 FILLER_0_109_281
*1234 FILLER_0_109_293
*1235 FILLER_0_109_3
*1236 FILLER_0_109_305
*1237 FILLER_0_109_317
*1238 FILLER_0_109_329
*1239 FILLER_0_109_335
*1240 FILLER_0_109_337
*1241 FILLER_0_109_349
*1242 FILLER_0_109_361
*1243 FILLER_0_109_373
*1244 FILLER_0_109_385
*1245 FILLER_0_109_39
*1246 FILLER_0_109_391
*1247 FILLER_0_109_393
*1248 FILLER_0_109_405
*1249 FILLER_0_109_417
*1250 FILLER_0_109_429
*1251 FILLER_0_109_441
*1252 FILLER_0_109_447
*1253 FILLER_0_109_449
*1254 FILLER_0_109_461
*1255 FILLER_0_109_473
*1256 FILLER_0_109_485
*1257 FILLER_0_109_497
*1258 FILLER_0_109_503
*1259 FILLER_0_109_505
*1260 FILLER_0_109_51
*1261 FILLER_0_109_517
*1262 FILLER_0_109_529
*1263 FILLER_0_109_541
*1264 FILLER_0_109_55
*1265 FILLER_0_109_553
*1266 FILLER_0_109_559
*1267 FILLER_0_109_561
*1268 FILLER_0_109_57
*1269 FILLER_0_109_573
*1270 FILLER_0_109_585
*1271 FILLER_0_109_597
*1272 FILLER_0_109_609
*1273 FILLER_0_109_615
*1274 FILLER_0_109_617
*1275 FILLER_0_109_629
*1276 FILLER_0_109_641
*1277 FILLER_0_109_653
*1278 FILLER_0_109_665
*1279 FILLER_0_109_671
*1280 FILLER_0_109_673
*1281 FILLER_0_109_685
*1282 FILLER_0_109_69
*1283 FILLER_0_109_697
*1284 FILLER_0_109_709
*1285 FILLER_0_109_721
*1286 FILLER_0_109_727
*1287 FILLER_0_109_729
*1288 FILLER_0_109_741
*1289 FILLER_0_109_753
*1290 FILLER_0_109_765
*1291 FILLER_0_109_777
*1292 FILLER_0_109_783
*1293 FILLER_0_109_785
*1294 FILLER_0_109_797
*1295 FILLER_0_109_809
*1296 FILLER_0_109_81
*1297 FILLER_0_109_821
*1298 FILLER_0_109_833
*1299 FILLER_0_109_839
*1300 FILLER_0_109_841
*1301 FILLER_0_109_853
*1302 FILLER_0_109_865
*1303 FILLER_0_109_877
*1304 FILLER_0_109_889
*1305 FILLER_0_109_895
*1306 FILLER_0_109_897
*1307 FILLER_0_109_909
*1308 FILLER_0_109_921
*1309 FILLER_0_109_93
*1310 FILLER_0_109_933
*1311 FILLER_0_109_945
*1312 FILLER_0_109_951
*1313 FILLER_0_109_953
*1314 FILLER_0_109_965
*1315 FILLER_0_109_977
*1316 FILLER_0_109_989
*1317 FILLER_0_10_1005
*1318 FILLER_0_10_1017
*1319 FILLER_0_10_1029
*1320 FILLER_0_10_1035
*1321 FILLER_0_10_1037
*1322 FILLER_0_10_1049
*1323 FILLER_0_10_1061
*1324 FILLER_0_10_1073
*1325 FILLER_0_10_1085
*1326 FILLER_0_10_109
*1327 FILLER_0_10_1091
*1328 FILLER_0_10_1093
*1329 FILLER_0_10_1101
*1330 FILLER_0_10_121
*1331 FILLER_0_10_133
*1332 FILLER_0_10_139
*1333 FILLER_0_10_141
*1334 FILLER_0_10_15
*1335 FILLER_0_10_153
*1336 FILLER_0_10_165
*1337 FILLER_0_10_177
*1338 FILLER_0_10_189
*1339 FILLER_0_10_195
*1340 FILLER_0_10_197
*1341 FILLER_0_10_209
*1342 FILLER_0_10_221
*1343 FILLER_0_10_233
*1344 FILLER_0_10_245
*1345 FILLER_0_10_251
*1346 FILLER_0_10_253
*1347 FILLER_0_10_265
*1348 FILLER_0_10_27
*1349 FILLER_0_10_277
*1350 FILLER_0_10_289
*1351 FILLER_0_10_29
*1352 FILLER_0_10_3
*1353 FILLER_0_10_301
*1354 FILLER_0_10_307
*1355 FILLER_0_10_309
*1356 FILLER_0_10_321
*1357 FILLER_0_10_333
*1358 FILLER_0_10_345
*1359 FILLER_0_10_357